Circuit: * G:\My Drive\Projekty\elektronika\Dohle\Dohle Furnace Prototype\Draft1.asc

WARNING: Node NC_03 is floating.

WARNING: Less than two connections to node NC_03.  This node is used by C3.
Direct Newton iteration for .op point succeeded.

Date: Tue Mar 08 11:13:33 2022
Total elapsed time: 0.208 seconds.

tnom = 27
temp = 27
method = modified trap
totiter = 13304
traniter = 13292
tranpoints = 4139
accept = 2748
rejected = 1391
matrix size = 28
fillins = 35
solver = Normal
Matrix Compiler1: 5.30 KB object code size  0.6/0.3/[0.3]
Matrix Compiler2: 3.43 KB object code size  0.2/0.3/[0.2]

